Version 4
SHEET 1 880 680
WIRE -32 96 -96 96
WIRE 80 96 -32 96
WIRE 208 96 144 96
WIRE 288 96 208 96
WIRE 432 96 368 96
WIRE 496 96 432 96
WIRE -32 128 -32 96
WIRE 208 128 208 96
WIRE 432 128 432 96
WIRE -32 240 -32 208
WIRE 208 240 208 208
WIRE 208 240 -32 240
WIRE 432 240 432 192
WIRE 432 240 208 240
WIRE 208 272 208 240
FLAG 208 272 0
FLAG 496 96 output
FLAG -96 96 input
SYMBOL voltage -32 112 R0
WINDOW 123 24 124 Left 2
WINDOW 39 0 0 Left 0
SYMATTR Value2 AC 1
SYMATTR InstName V1
SYMATTR Value SINE()
SYMBOL cap 144 80 R90
WINDOW 0 0 32 VBottom 2
WINDOW 3 32 32 VTop 2
SYMATTR InstName C1
SYMATTR Value 0.530µ
SYMBOL res 192 112 R0
SYMATTR InstName R1
SYMATTR Value 1k
SYMBOL res 384 80 R90
WINDOW 0 0 56 VBottom 2
WINDOW 3 32 56 VTop 2
SYMATTR InstName R2
SYMATTR Value 1k
SYMBOL cap 416 128 R0
SYMATTR InstName C2
SYMATTR Value 0.032µ
TEXT -56 296 Left 2 !.ac dec 100 1 1000k
