Version 4
SHEET 1 880 680
WIRE 16 80 -32 80
WIRE 128 80 128 16
WIRE 128 80 96 80
WIRE 160 80 128 80
WIRE 304 80 224 80
WIRE 352 80 304 80
WIRE 304 112 304 80
WIRE -32 160 -32 80
WIRE -32 160 -96 160
WIRE -32 224 -32 160
WIRE 16 224 -32 224
WIRE 192 224 96 224
WIRE 304 224 304 192
WIRE 304 224 192 224
WIRE 192 256 192 224
FLAG 192 256 0
FLAG 352 80 output
FLAG -96 160 input1
FLAG 128 16 input2
SYMBOL cap 224 64 R90
WINDOW 0 0 32 VBottom 2
WINDOW 3 32 32 VTop 2
SYMATTR InstName C1
SYMATTR Value 0.032µ
SYMBOL res 288 96 R0
SYMATTR InstName R1
SYMATTR Value 1k
SYMBOL voltage 112 80 R90
WINDOW 0 -32 56 VBottom 2
WINDOW 3 32 56 VTop 2
WINDOW 123 0 0 Left 0
WINDOW 39 0 0 Left 0
SYMATTR InstName V1
SYMATTR Value SINE(0 1 1k)
SYMBOL voltage 0 224 R270
WINDOW 0 32 56 VTop 2
WINDOW 3 -32 56 VBottom 2
WINDOW 123 0 0 Left 0
WINDOW 39 0 0 Left 0
SYMATTR InstName V2
SYMATTR Value SINE(0 1 10k)
TEXT 272 272 Left 2 !.tran 3m
