Version 4
SHEET 1 880 680
WIRE 32 96 -16 96
WIRE 128 96 128 32
WIRE 128 96 112 96
WIRE 144 96 128 96
WIRE 304 96 224 96
WIRE 368 96 304 96
WIRE 304 128 304 96
WIRE -16 176 -16 96
WIRE -16 176 -80 176
WIRE -16 240 -16 176
WIRE 32 240 -16 240
WIRE 176 240 112 240
WIRE 304 240 304 192
WIRE 304 240 176 240
WIRE 176 272 176 240
FLAG 176 272 0
FLAG 368 96 output
FLAG -80 176 input1
FLAG 128 32 input2
SYMBOL res 240 80 R90
WINDOW 0 0 56 VBottom 2
WINDOW 3 32 56 VTop 2
SYMATTR InstName R1
SYMATTR Value 1k
SYMBOL cap 288 128 R0
SYMATTR InstName C1
SYMATTR Value 0.530µ
SYMBOL voltage 128 96 R90
WINDOW 0 -32 56 VBottom 2
WINDOW 3 32 56 VTop 2
WINDOW 123 0 0 Left 0
WINDOW 39 0 0 Left 0
SYMATTR InstName V1
SYMATTR Value SINE(0 1 10k)
SYMBOL voltage 16 240 R270
WINDOW 0 32 56 VTop 2
WINDOW 3 -32 56 VBottom 2
WINDOW 123 0 0 Left 0
WINDOW 39 0 0 Left 0
SYMATTR InstName V2
SYMATTR Value SINE(0 1 100)
TEXT 256 280 Left 2 !.tran 15m
