Version 4
SHEET 1 880 680
WIRE 32 96 -64 96
WIRE 176 96 176 32
WIRE 176 96 112 96
WIRE 192 96 176 96
WIRE 336 96 272 96
WIRE 400 96 336 96
WIRE 336 128 336 96
WIRE -64 176 -64 96
WIRE -64 176 -128 176
WIRE -64 272 -64 176
WIRE 32 272 -64 272
WIRE 176 272 112 272
WIRE 336 272 336 192
WIRE 336 272 176 272
WIRE 176 304 176 272
FLAG 176 304 0
FLAG 400 96 output
FLAG -128 176 input1
FLAG 176 32 input2
SYMBOL res 288 80 R90
WINDOW 0 0 56 VBottom 2
WINDOW 3 32 56 VTop 2
SYMATTR InstName R1
SYMATTR Value 1k
SYMBOL cap 320 128 R0
SYMATTR InstName C1
SYMATTR Value 0.530µ
SYMBOL voltage 128 96 R90
WINDOW 0 -32 56 VBottom 2
WINDOW 3 32 56 VTop 2
WINDOW 123 0 0 Left 0
WINDOW 39 0 0 Left 0
SYMATTR InstName V1
SYMATTR Value SINE(0 1 10k)
SYMBOL voltage 16 272 R270
WINDOW 0 32 56 VTop 2
WINDOW 3 -32 56 VBottom 2
WINDOW 123 0 0 Left 0
WINDOW 39 0 0 Left 0
SYMATTR InstName V2
SYMATTR Value SINE(0 1 100)
TEXT 256 312 Left 2 !.tran 15m
