Version 4
SHEET 1 880 680
WIRE 48 80 -32 80
WIRE 224 80 224 16
WIRE 224 80 128 80
WIRE 256 80 224 80
WIRE 384 80 320 80
WIRE 432 80 384 80
WIRE 384 144 384 80
WIRE -32 176 -32 80
WIRE -32 176 -96 176
WIRE -32 272 -32 176
WIRE 48 272 -32 272
WIRE 224 272 128 272
WIRE 384 272 384 224
WIRE 384 272 224 272
WIRE 224 304 224 272
FLAG 224 304 0
FLAG 432 80 output
FLAG -96 176 input1
FLAG 224 16 input2
SYMBOL cap 320 64 R90
WINDOW 0 0 32 VBottom 2
WINDOW 3 32 32 VTop 2
SYMATTR InstName C1
SYMATTR Value 0.032µ
SYMBOL res 368 128 R0
SYMATTR InstName R1
SYMATTR Value 1k
SYMBOL voltage 144 80 R90
WINDOW 0 -32 56 VBottom 2
WINDOW 3 32 56 VTop 2
WINDOW 123 0 0 Left 0
WINDOW 39 0 0 Left 0
SYMATTR InstName V1
SYMATTR Value SINE(0 1 1k)
SYMBOL voltage 32 272 R270
WINDOW 0 32 56 VTop 2
WINDOW 3 -32 56 VBottom 2
WINDOW 123 0 0 Left 0
WINDOW 39 0 0 Left 0
SYMATTR InstName V2
SYMATTR Value SINE(0 1 10k)
TEXT 304 312 Left 2 !.tran 3m
